Circuit: * C:\002_One_Drive\OneDrive\Desktop\College\Projects for Clubs\IEEE\IoT Stethescope\butterworth filter.asc

Direct Newton iteration for .op point succeeded.

Date: Tue Feb 07 17:03:59 2023
Total elapsed time: 0.056 seconds.

tnom = 27
temp = 27
method = trap
totiter = 11
traniter = 0
tranpoints = 0
accept = 0
rejected = 0
matrix size = 40
fillins = 45
solver = Normal
Matrix Compiler1:     232 opcodes
Matrix Compiler2: 4.00 KB object code size
